!-Generator IDFEditor 1.44
!-Option SortedOrder

!-NOTE: All comments with '!-' are ignored by the IDFEditor and are generated automatically.
!-      Use '!' comments if they need to be retained when using the IDFEditor.


!-   ===========  ALL OBJECTS IN CLASS: VERSION ===========

Version,
    8.3;                     !- Version Identifier


!-   ===========  ALL OBJECTS IN CLASS: SIMULATIONCONTROL ===========

SimulationControl,
    Yes,                     !- Do Zone Sizing Calculation
    Yes,                     !- Do System Sizing Calculation
    No,                      !- Do Plant Sizing Calculation
    Yes,                     !- Run Simulation for Sizing Periods
    Yes,                     !- Run Simulation for Weather File Run Periods
    Yes;                     !- Do HVAC Sizing Simulation for Sizing Periods


!-   ===========  ALL OBJECTS IN CLASS: BUILDING ===========

Building,
    Baseline,                !- Name
    0.0000,                  !- North Axis {deg}
    City,                    !- Terrain
    0.0400,                  !- Loads Convergence Tolerance Value
    0.2000,                  !- Temperature Convergence Tolerance Value {deltaC}
    FullInteriorAndExterior, !- Solar Distribution
    50,                      !- Maximum Number of Warmup Days
    15;                      !- Minimum Number of Warmup Days


!-   ===========  ALL OBJECTS IN CLASS: SHADOWCALCULATION ===========

ShadowCalculation,
    AverageOverDaysInFrequency,  !- Calculation Method
    30;                      !- Calculation Frequency


!-   ===========  ALL OBJECTS IN CLASS: SURFACECONVECTIONALGORITHM:INSIDE ===========

SurfaceConvectionAlgorithm:Inside,
    TARP;                    !- Algorithm


!-   ===========  ALL OBJECTS IN CLASS: SURFACECONVECTIONALGORITHM:OUTSIDE ===========

SurfaceConvectionAlgorithm:Outside,
    TARP;                    !- Algorithm


!-   ===========  ALL OBJECTS IN CLASS: HEATBALANCEALGORITHM ===========

HeatBalanceAlgorithm,
    ConductionTransferFunction;  !- Algorithm


!-   ===========  ALL OBJECTS IN CLASS: TIMESTEP ===========

Timestep,
    4;                       !- Number of Timesteps per Hour


!-   ===========  ALL OBJECTS IN CLASS: SIZINGPERIOD:DESIGNDAY ===========

SizingPeriod:DesignDay,
    Florianopolis_inverno,   !- Name
    7,                       !- Month
    21,                      !- Day of Month
    WinterDesignDay,         !- Day Type
    7.5,                     !- Maximum Dry-Bulb Temperature {C}
    6.7,                     !- Daily Dry-Bulb Temperature Range {deltaC}
    DefaultMultipliers,      !- Dry-Bulb Temperature Range Modifier Type
    ,                        !- Dry-Bulb Temperature Range Modifier Day Schedule Name
    WetBulb,                 !- Humidity Condition Type
    7.5,                     !- Wetbulb or DewPoint at Maximum Dry-Bulb {C}
    ,                        !- Humidity Condition Day Schedule Name
    ,                        !- Humidity Ratio at Maximum Dry-Bulb {kgWater/kgDryAir}
    ,                        !- Enthalpy at Maximum Dry-Bulb {J/kg}
    ,                        !- Daily Wet-Bulb Temperature Range {deltaC}
    101420,                  !- Barometric Pressure {Pa}
    0,                       !- Wind Speed {m/s}
    0,                       !- Wind Direction {deg}
    No,                      !- Rain Indicator
    No,                      !- Snow Indicator
    No,                      !- Daylight Saving Time Indicator
    ASHRAEClearSky,          !- Solar Model Indicator
    ,                        !- Beam Solar Day Schedule Name
    ,                        !- Diffuse Solar Day Schedule Name
    ,                        !- ASHRAE Clear Sky Optical Depth for Beam Irradiance (taub) {dimensionless}
    ,                        !- ASHRAE Clear Sky Optical Depth for Diffuse Irradiance (taud) {dimensionless}
    0;                       !- Sky Clearness

SizingPeriod:DesignDay,
    Florianopolis_verão,     !- Name
    1,                       !- Month
    21,                      !- Day of Month
    SummerDesignDay,         !- Day Type
    32.2,                    !- Maximum Dry-Bulb Temperature {C}
    6.7,                     !- Daily Dry-Bulb Temperature Range {deltaC}
    DefaultMultipliers,      !- Dry-Bulb Temperature Range Modifier Type
    ,                        !- Dry-Bulb Temperature Range Modifier Day Schedule Name
    WetBulb,                 !- Humidity Condition Type
    26.6,                    !- Wetbulb or DewPoint at Maximum Dry-Bulb {C}
    ,                        !- Humidity Condition Day Schedule Name
    ,                        !- Humidity Ratio at Maximum Dry-Bulb {kgWater/kgDryAir}
    ,                        !- Enthalpy at Maximum Dry-Bulb {J/kg}
    ,                        !- Daily Wet-Bulb Temperature Range {deltaC}
    101420,                  !- Barometric Pressure {Pa}
    0,                       !- Wind Speed {m/s}
    0,                       !- Wind Direction {deg}
    No,                      !- Rain Indicator
    No,                      !- Snow Indicator
    No,                      !- Daylight Saving Time Indicator
    ASHRAEClearSky,          !- Solar Model Indicator
    ,                        !- Beam Solar Day Schedule Name
    ,                        !- Diffuse Solar Day Schedule Name
    ,                        !- ASHRAE Clear Sky Optical Depth for Beam Irradiance (taub) {dimensionless}
    ,                        !- ASHRAE Clear Sky Optical Depth for Diffuse Irradiance (taud) {dimensionless}
    1;                       !- Sky Clearness


!-   ===========  ALL OBJECTS IN CLASS: RUNPERIOD ===========

RunPeriod,
    ,                        !- Name
    1,                       !- Begin Month
    1,                       !- Begin Day of Month
    12,                      !- End Month
    31,                      !- End Day of Month
    Sunday,                  !- Day of Week for Start Day
    No,                      !- Use Weather File Holidays and Special Days
    No,                      !- Use Weather File Daylight Saving Period
    No,                      !- Apply Weekend Holiday Rule
    Yes,                     !- Use Weather File Rain Indicators
    Yes;                     !- Use Weather File Snow Indicators


!-   ===========  ALL OBJECTS IN CLASS: RUNPERIODCONTROL:SPECIALDAYS ===========

! US National Holidays
RunPeriodControl:SpecialDays,
    New Years Day,           !- Name
    January 1,               !- Start Date
    1,                       !- Duration {days}
    Holiday;                 !- Special Day Type

RunPeriodControl:SpecialDays,
    Christmas,               !- Name
    December 25,             !- Start Date
    1,                       !- Duration {days}
    Holiday;                 !- Special Day Type


!-   ===========  ALL OBJECTS IN CLASS: SITE:GROUNDTEMPERATURE:BUILDINGSURFACE ===========

!
! Ground temperature object produced by /tools/bin/gt2idf /phome/comstd/_p.gtp/state.analyses/slab/output/Zone1A_nonres_R0_0ftV_OfficeMedium_Miami_AddendumBB.gtp
Site:GroundTemperature:BuildingSurface,
    22.75,                   !- January Ground Temperature {C}
    23.92,                   !- February Ground Temperature {C}
    24.21,                   !- March Ground Temperature {C}
    23.89,                   !- April Ground Temperature {C}
    22.22,                   !- May Ground Temperature {C}
    20.39,                   !- June Ground Temperature {C}
    18.68,                   !- July Ground Temperature {C}
    17.48,                   !- August Ground Temperature {C}
    17.16,                   !- September Ground Temperature {C}
    17.79,                   !- October Ground Temperature {C}
    19.23,                   !- November Ground Temperature {C}
    21.01;                   !- December Ground Temperature {C}


!-   ===========  ALL OBJECTS IN CLASS: SCHEDULETYPELIMITS ===========

ScheduleTypeLimits,
    Any Number;              !- Name

ScheduleTypeLimits,
    Fraction,                !- Name
    0.0,                     !- Lower Limit Value
    1.0,                     !- Upper Limit Value
    Continuous;              !- Numeric Type

ScheduleTypeLimits,
    Temperature,             !- Name
    -60,                     !- Lower Limit Value
    200,                     !- Upper Limit Value
    Continuous;              !- Numeric Type

ScheduleTypeLimits,
    On/Off,                  !- Name
    0,                       !- Lower Limit Value
    1,                       !- Upper Limit Value
    Discrete;                !- Numeric Type

ScheduleTypeLimits,
    Control Type,            !- Name
    0,                       !- Lower Limit Value
    4,                       !- Upper Limit Value
    Discrete;                !- Numeric Type

ScheduleTypeLimits,
    Humidity,                !- Name
    10,                      !- Lower Limit Value
    90,                      !- Upper Limit Value
    Continuous;              !- Numeric Type

ScheduleTypeLimits,
    Number;                  !- Name


!-   ===========  ALL OBJECTS IN CLASS: SCHEDULE:COMPACT ===========

Schedule:Compact,
    HVACOperationSchd,       !- Name
    On/Off,                  !- Schedule Type Limits Name
    Through: 12/31,          !- Field 1
    For: Weekdays SummerDesignDay,  !- Field 2
    Until: 07:00,            !- Field 3
    0.0,                     !- Field 4
    Until: 19:00,            !- Field 5
    1.0,                     !- Field 6
    Until: 24:00,            !- Field 7
    0.0,                     !- Field 8
    For: Saturday WinterDesignDay,  !- Field 9
    Until: 07:00,            !- Field 10
    0.0,                     !- Field 11
    Until: 12:00,            !- Field 12
    1.0,                     !- Field 13
    Until: 24:00,            !- Field 14
    0.0,                     !- Field 15
    For:Sunday Holidays AllOtherDays,  !- Field 16
    Until: 24:00,            !- Field 17
    0.0;                     !- Field 18

! lighting schedules for ASHRAE90.1-STD2004, ASHRAE90.1-2007
! lighting schedules for ASHRAE90.1-STD2010
! lighting schedules for IECC2006 / IECC2009
! lighting schedules for IECC2012
! lighting schedules for ASHRAE1891_2009
! lighting schedules for ASHRAE1891_2011
! lighting schedules for ASHRAE90.1-2013
Schedule:Compact,
    BLDG_LIGHT_SCH,          !- Name
    Fraction,                !- Schedule Type Limits Name
    Through: 12/31,          !- Field 1
    For: Weekdays SummerDesignDay,  !- Field 2
    Until: 7:00,             !- Field 3
    0.05,                    !- Field 4
    Until: 8:00,             !- Field 5
    0.1,                     !- Field 6
    Until: 18:00,            !- Field 7
    0.9,                     !- Field 8
    Until: 19:00,            !- Field 9
    0.1,                     !- Field 10
    Until: 24:00,            !- Field 11
    0.05,                    !- Field 12
    For: Saturday WinterDesignDay,  !- Field 13
    Until: 7:00,             !- Field 14
    0.05,                    !- Field 15
    Until: 8:00,             !- Field 16
    0.1,                     !- Field 17
    Until: 12:00,            !- Field 18
    0.9,                     !- Field 19
    Until: 13:00,            !- Field 20
    0.1,                     !- Field 21
    Until: 24:00,            !- Field 22
    0.05,                    !- Field 23
    For: Sunday Holidays AllOtherDays,  !- Field 24
    Until: 24:00,            !- Field 25
    0.05;                    !- Field 26

Schedule:Compact,
    BLDG_EQUIP_SCH,          !- Name
    Fraction,                !- Schedule Type Limits Name
    Through: 12/31,          !- Field 1
    For: Weekdays SummerDesignDay,  !- Field 2
    Until: 7:00,             !- Field 3
    0.05,                    !- Field 4
    Until: 8:00,             !- Field 5
    0.1,                     !- Field 6
    Until: 18:00,            !- Field 7
    0.9,                     !- Field 8
    Until: 19:00,            !- Field 9
    0.1,                     !- Field 10
    Until: 24:00,            !- Field 11
    0.05,                    !- Field 12
    For: Saturday WinterDesignDay,  !- Field 13
    Until: 7:00,             !- Field 14
    0.05,                    !- Field 15
    Until: 8:00,             !- Field 16
    0.1,                     !- Field 17
    Until: 12:00,            !- Field 18
    0.9,                     !- Field 19
    Until: 13:00,            !- Field 20
    0.1,                     !- Field 21
    Until: 24:00,            !- Field 22
    0.05,                    !- Field 23
    For: Sunday Holidays AllOtherDays,  !- Field 24
    Until: 24:00,            !- Field 25
    0.05;                    !- Field 26

Schedule:Compact,
    BLDG_OCC_SCH,            !- Name
    Fraction,                !- Schedule Type Limits Name
    Through: 12/31,          !- Field 1
    For: Weekdays SummerDesignDay,  !- Field 2
    Until: 7:00,             !- Field 3
    0.0,                     !- Field 4
    Until: 8:00,             !- Field 5
    0.1,                     !- Field 6
    Until: 18:00,            !- Field 7
    1,                       !- Field 8
    Until: 19:00,            !- Field 9
    0.1,                     !- Field 10
    Until: 24:00,            !- Field 11
    0.0,                     !- Field 12
    For: Saturday WinterDesignDay,  !- Field 13
    Until: 7:00,             !- Field 14
    0.0,                     !- Field 15
    Until: 8:00,             !- Field 16
    0.05,                    !- Field 17
    Until: 12:00,            !- Field 18
    0.5,                     !- Field 19
    Until: 13:00,            !- Field 20
    0.05,                    !- Field 21
    Until: 24:00,            !- Field 22
    0.0,                     !- Field 23
    For: Sunday Holidays AllOtherDays,  !- Field 24
    Until: 24:00,            !- Field 25
    0.00;                    !- Field 26

Schedule:Compact,
    BLDG_ELEVATORS,          !- Name
    Fraction,                !- Schedule Type Limits Name
    Through: 12/31,          !- Field 1
    For: SummerDesignDay,    !- Field 2
    Until: 24:00,            !- Field 3
    0.69,                    !- Field 4
    For: Weekdays,           !- Field 5
    Until: 07:00,            !- Field 6
    0.0,                     !- Field 7
    Until: 08:00,            !- Field 8
    0.35,                    !- Field 9
    Until: 09:00,            !- Field 10
    0.69,                    !- Field 11
    Until: 10:00,            !- Field 12
    0.43,                    !- Field 13
    Until: 11:00,            !- Field 14
    0.37,                    !- Field 15
    Until: 12:00,            !- Field 16
    0.43,                    !- Field 17
    Until: 13:00,            !- Field 18
    0.58,                    !- Field 19
    Until: 14:00,            !- Field 20
    0.48,                    !- Field 21
    Until: 15:00,            !- Field 22
    0.37,                    !- Field 23
    Until: 16:00,            !- Field 24
    0.37,                    !- Field 25
    Until: 17:00,            !- Field 26
    0.46,                    !- Field 27
    Until: 18:00,            !- Field 28
    0.62,                    !- Field 29
    Until: 19:00,            !- Field 30
    0.12,                    !- Field 31
    Until: 20:00,            !- Field 32
    0.04,                    !- Field 33
    Until: 21:00,            !- Field 34
    0.04,                    !- Field 35
    Until: 24:00,            !- Field 36
    0.00,                    !- Field 37
    For: Saturday WinterDesignDay,  !- Field 38
    Until: 07:00,            !- Field 39
    0.0,                     !- Field 40
    Until: 08:00,            !- Field 41
    0.16,                    !- Field 42
    Until: 09:00,            !- Field 43
    0.14,                    !- Field 44
    Until: 10:00,            !- Field 45
    0.21,                    !- Field 46
    Until: 11:00,            !- Field 47
    0.18,                    !- Field 48
    Until: 12:00,            !- Field 49
    0.25,                    !- Field 50
    Until: 13:00,            !- Field 51
    0.21,                    !- Field 52
    Until: 14:00,            !- Field 53
    0.13,                    !- Field 54
    Until: 15:00,            !- Field 55
    0.08,                    !- Field 56
    Until: 16:00,            !- Field 57
    0.04,                    !- Field 58
    Until: 17:00,            !- Field 59
    0.05,                    !- Field 60
    Until: 18:00,            !- Field 61
    0.06,                    !- Field 62
    Until: 24:00,            !- Field 63
    0.00,                    !- Field 64
    For:Sunday Holidays AllOtherDays,  !- Field 65
    Until: 24:00,            !- Field 66
    0.0;                     !- Field 67

Schedule:Compact,
    ELEV_LIGHT_FAN_SCH_ADD_DF,  !- Name
    Fraction,                !- Schedule Type Limits Name
    Through: 12/31,          !- Field 1
    For: SummerDesignDay,    !- Field 2
    Until: 24:00,            !- Field 3
    0.69,                    !- Field 4
    For: Weekdays,           !- Field 5
    Until: 07:00,            !- Field 6
    0.0,                     !- Field 7
    Until: 08:00,            !- Field 8
    0.35,                    !- Field 9
    Until: 09:00,            !- Field 10
    0.69,                    !- Field 11
    Until: 10:00,            !- Field 12
    0.43,                    !- Field 13
    Until: 11:00,            !- Field 14
    0.37,                    !- Field 15
    Until: 12:00,            !- Field 16
    0.43,                    !- Field 17
    Until: 13:00,            !- Field 18
    0.58,                    !- Field 19
    Until: 14:00,            !- Field 20
    0.48,                    !- Field 21
    Until: 15:00,            !- Field 22
    0.37,                    !- Field 23
    Until: 16:00,            !- Field 24
    0.37,                    !- Field 25
    Until: 17:00,            !- Field 26
    0.46,                    !- Field 27
    Until: 18:00,            !- Field 28
    0.62,                    !- Field 29
    Until: 19:00,            !- Field 30
    0.12,                    !- Field 31
    Until: 20:00,            !- Field 32
    0.04,                    !- Field 33
    Until: 21:00,            !- Field 34
    0.04,                    !- Field 35
    Until: 24:00,            !- Field 36
    0.00,                    !- Field 37
    For: Saturday WinterDesignDay,  !- Field 38
    Until: 07:00,            !- Field 39
    0.0,                     !- Field 40
    Until: 08:00,            !- Field 41
    0.16,                    !- Field 42
    Until: 09:00,            !- Field 43
    0.14,                    !- Field 44
    Until: 10:00,            !- Field 45
    0.21,                    !- Field 46
    Until: 11:00,            !- Field 47
    0.18,                    !- Field 48
    Until: 12:00,            !- Field 49
    0.25,                    !- Field 50
    Until: 13:00,            !- Field 51
    0.21,                    !- Field 52
    Until: 14:00,            !- Field 53
    0.13,                    !- Field 54
    Until: 15:00,            !- Field 55
    0.08,                    !- Field 56
    Until: 16:00,            !- Field 57
    0.04,                    !- Field 58
    Until: 17:00,            !- Field 59
    0.05,                    !- Field 60
    Until: 18:00,            !- Field 61
    0.06,                    !- Field 62
    Until: 24:00,            !- Field 63
    0.00,                    !- Field 64
    For:Sunday Holidays AllOtherDays,  !- Field 65
    Until: 24:00,            !- Field 66
    0.0;                     !- Field 67

Schedule:Compact,
    ACTIVITY_SCH,            !- Name
    Any Number,              !- Schedule Type Limits Name
    Through: 12/31,          !- Field 1
    For: AllDays,            !- Field 2
    Until: 24:00,            !- Field 3
    120.;                    !- Field 4

Schedule:Compact,
    INFIL_SCH_PNNL,          !- Name
    Fraction,                !- Schedule Type Limits Name
    Through: 12/31,          !- Field 1
    For: Weekdays SummerDesignDay,  !- Field 2
    Until: 06:00,            !- Field 3
    1.0,                     !- Field 4
    Until: 22:00,            !- Field 5
    1,                       !- Field 6
    Until: 24:00,            !- Field 7
    1.0,                     !- Field 8
    For: Saturday WinterDesignDay,  !- Field 9
    Until: 06:00,            !- Field 10
    1.0,                     !- Field 11
    Until: 18:00,            !- Field 12
    1,                       !- Field 13
    Until: 24:00,            !- Field 14
    1.0,                     !- Field 15
    For:Sunday Holidays AllOtherDays,  !- Field 16
    Until: 24:00,            !- Field 17
    1.0;                     !- Field 18


!-   ===========  ALL OBJECTS IN CLASS: MATERIAL ===========

! ------------------------------------------------------------------
! $Id: OpaqueLibraryScript_v30.idf,v 1.5 2010/10/21 19:30:30 atha577 Exp $
! $Log: OpaqueLibraryScript_v30.idf,v $
! Revision 1.5  2010/10/21 19:30:30  atha577
! Removed bb constructions for skylights.
!
! Revision 1.4  2010/10/16 00:49:56  atha577
! Minor change to bb code.
!
! Revision 1.3  2010/10/16 00:08:35  atha577
! Added bb skylight constructions.
!
! Revision 1.2  2010/01/20 21:56:42  d3l143
! reset R value of semi-heated Roof to 0.001 if the R values goes below 0.001.  V4.0 has a 0.001 threshold with it.
!
! Revision 1.1  2010/01/20 21:49:30  d3l143
! Initial revision
!
! Note:
! January 20, 2010: We experienced a problem in upgrading Warehouse from V3.0 to V4.0.
!                   The R value of the semiheated roof goes to around 0.0002 for Miami and Ryihad which V4.0 compliants that it is below 0.001.
!                   This was not a problem for V3.0.  Here we implemented a temporal solution to re-set the r value to 0.001 when it is below it.
! ------------------------------------------------------------------
!
Material,
    Std Wood 6inch,          !- Name
    MediumSmooth,            !- Roughness
    0.15,                    !- Thickness {m}
    0.12,                    !- Conductivity {W/m-K}
    540.0000,                !- Density {kg/m3}
    1210,                    !- Specific Heat {J/kg-K}
    0.9000000,               !- Thermal Absorptance
    0.7000000,               !- Solar Absorptance
    0.7000000;               !- Visible Absorptance

Material,
    AC02 Acoustic Ceiling,   !- Name
    MediumSmooth,            !- Roughness
    1.2700000E-02,           !- Thickness {m}
    5.7000000E-02,           !- Conductivity {W/m-K}
    288.0000,                !- Density {kg/m3}
    1339.000,                !- Specific Heat {J/kg-K}
    0.9000000,               !- Thermal Absorptance
    0.7000000,               !- Solar Absorptance
    0.2000000;               !- Visible Absorptance

Material,
    F07 25mm stucco,         !- Name
    Smooth,                  !- Roughness
    0.0254,                  !- Thickness {m}
    0.72,                    !- Conductivity {W/m-K}
    1856,                    !- Density {kg/m3}
    840,                     !- Specific Heat {J/kg-K}
    0.9,                     !- Thermal Absorptance
    0.7,                     !- Solar Absorptance
    0.7;                     !- Visible Absorptance

Material,
    F08 Metal surface,       !- Name
    Smooth,                  !- Roughness
    0.0008,                  !- Thickness {m}
    45.28,                   !- Conductivity {W/m-K}
    7824,                    !- Density {kg/m3}
    500;                     !- Specific Heat {J/kg-K}

Material,
    F08 Metal roof surface,  !- Name
    Smooth,                  !- Roughness
    0.0008,                  !- Thickness {m}
    45.28,                   !- Conductivity {W/m-K}
    7824,                    !- Density {kg/m3}
    500,                     !- Specific Heat {J/kg-K}
    0.75,                    !- Thermal Absorptance
    0.45;                    !- Solar Absorptance

Material,
    F12 Asphalt shingles,    !- Name
    VeryRough,               !- Roughness
    0.0032,                  !- Thickness {m}
    0.04,                    !- Conductivity {W/m-K}
    1120,                    !- Density {kg/m3}
    1260,                    !- Specific Heat {J/kg-K}
    0.75,                    !- Thermal Absorptance
    0.45;                    !- Solar Absorptance

Material,
    F13 Built-up roofing,    !- Name
    Rough,                   !- Roughness
    0.0095,                  !- Thickness {m}
    0.16,                    !- Conductivity {W/m-K}
    1120,                    !- Density {kg/m3}
    1460,                    !- Specific Heat {J/kg-K}
    0.75,                    !- Thermal Absorptance
    0.45;                    !- Solar Absorptance

Material,
    G01 13mm gypsum board,   !- Name
    Smooth,                  !- Roughness
    0.0127,                  !- Thickness {m}
    0.1600,                  !- Conductivity {W/m-K}
    800.0000,                !- Density {kg/m3}
    1090.0000,               !- Specific Heat {J/kg-K}
    0.9000,                  !- Thermal Absorptance
    0.7000,                  !- Solar Absorptance
    0.5000;                  !- Visible Absorptance

Material,
    G01 16mm gypsum board,   !- Name
    MediumSmooth,            !- Roughness
    0.0159,                  !- Thickness {m}
    0.16,                    !- Conductivity {W/m-K}
    800,                     !- Density {kg/m3}
    1090;                    !- Specific Heat {J/kg-K}

Material,
    G02 16mm plywood,        !- Name
    Smooth,                  !- Roughness
    0.0159,                  !- Thickness {m}
    0.12,                    !- Conductivity {W/m-K}
    544,                     !- Density {kg/m3}
    1210;                    !- Specific Heat {J/kg-K}

Material,
    M14 150mm heavyweight concrete roof,  !- Name
    MediumRough,             !- Roughness
    0.1524,                  !- Thickness {m}
    2.31,                    !- Conductivity {W/m-K}
    2322,                    !- Density {kg/m3}
    832;                     !- Specific Heat {J/kg-K}

Material,
    100mm Normalweight concrete wall,  !- Name
    MediumRough,             !- Roughness
    0.1016,                  !- Thickness {m}
    2.31,                    !- Conductivity {W/m-K}
    2322,                    !- Density {kg/m3}
    832;                     !- Specific Heat {J/kg-K}

Material,
    200mm Normalweight concrete wall,  !- Name
    MediumRough,             !- Roughness
    0.2032,                  !- Thickness {m}
    2.31,                    !- Conductivity {W/m-K}
    2322,                    !- Density {kg/m3}
    832;                     !- Specific Heat {J/kg-K}

Material,
    100mm Normalweight concrete floor,  !- Name
    MediumRough,             !- Roughness
    0.1016,                  !- Thickness {m}
    2.31,                    !- Conductivity {W/m-K}
    2322,                    !- Density {kg/m3}
    832;                     !- Specific Heat {J/kg-K}

Material,
    150mm Normalweight concrete floor,  !- Name
    MediumRough,             !- Roughness
    0.1524,                  !- Thickness {m}
    2.31,                    !- Conductivity {W/m-K}
    2322,                    !- Density {kg/m3}
    832;                     !- Specific Heat {J/kg-K}

Material,
    200mm Normalweight concrete floor,  !- Name
    MediumRough,             !- Roughness
    0.2032,                  !- Thickness {m}
    2.31,                    !- Conductivity {W/m-K}
    2322,                    !- Density {kg/m3}
    832;                     !- Specific Heat {J/kg-K}

Material,
    M10 200mm concrete block wall,  !- Name
    MediumRough,             !- Roughness
    0.2032,                  !- Thickness {m}
    0.72,                    !- Conductivity {W/m-K}
    800,                     !- Density {kg/m3}
    832;                     !- Specific Heat {J/kg-K}

Material,
    M10 200mm concrete block basement wall,  !- Name
    MediumRough,             !- Roughness
    0.2032,                  !- Thickness {m}
    1.326,                   !- Conductivity {W/m-K}
    1842,                    !- Density {kg/m3}
    912;                     !- Specific Heat {J/kg-K}

Material,
    Ceram Tij 8 fur circ (10 cm),  !- Name
    Rough,                   !- Roughness
    0.033,                   !- Thickness {m}
    0.9,                     !- Conductivity {W/m-K}
    1103,                    !- Density {kg/m3}
    920,                     !- Specific Heat {J/kg-K}
    0.9,                     !- Thermal Absorptance
    0.7,                     !- Solar Absorptance
    0.7;                     !- Visible Absorptance

Material,
    ArgamassaReboco(25mm),   !- Name
    Rough,                   !- Roughness
    0.025,                   !- Thickness {m}
    1.15,                    !- Conductivity {W/m-K}
    2000,                    !- Density {kg/m3}
    1000,                    !- Specific Heat {J/kg-K}
    0.9,                     !- Thermal Absorptance
    0.4,                     !- Solar Absorptance
    0.4;                     !- Visible Absorptance

Material,
    TijoloMacico(100mm),     !- Name
    Rough,                   !- Roughness
    0.1,                     !- Thickness {m}