!-Generator IDFEditor 1.47
!-Option SortedOrder
!-NOTE: All comments with '!-' are ignored by the IDFEditor and are generated automatically.
!-      Use '!' comments if they need to be retained when using the IDFEditor.
!-   ===========  ALL OBJECTS IN CLASS: VERSION ===========

  Version,8.5;

!-   ===========  ALL OBJECTS IN CLASS: SIMULATIONCONTROL ===========

  SimulationControl,
    Yes,                     !- Do Zone Sizing Calculation
    Yes,                     !- Do System Sizing Calculation
    No,                      !- Do Plant Sizing Calculation
    No,                      !- Run Simulation for Sizing Periods
    Yes;                     !- Run Simulation for Weather File Run Periods

!-   ===========  ALL OBJECTS IN CLASS: BUILDING ===========

  Building,
    Modelo 150m,             !- Name
    @@Azimute@@,             !- North Axis {deg}
    City,                    !- Terrain
    0.04,                    !- Loads Convergence Tolerance Value
    0.4,                     !- Temperature Convergence Tolerance Value {deltaC}
    FullInteriorAndExteriorWithReflections,  !- Solar Distribution
    25,                      !- Maximum Number of Warmup Days
    6;                       !- Minimum Number of Warmup Days

!-   ===========  ALL OBJECTS IN CLASS: SURFACECONVECTIONALGORITHM:INSIDE ===========

  SurfaceConvectionAlgorithm:Inside,TARP;

!-   ===========  ALL OBJECTS IN CLASS: SURFACECONVECTIONALGORITHM:OUTSIDE ===========

  SurfaceConvectionAlgorithm:Outside,TARP;

!-   ===========  ALL OBJECTS IN CLASS: HEATBALANCEALGORITHM ===========

  HeatBalanceAlgorithm,ConductionTransferFunction,200,0.1,1000;

!-   ===========  ALL OBJECTS IN CLASS: ZONECAPACITANCEMULTIPLIER:RESEARCHSPECIAL ===========

  ZoneCapacitanceMultiplier:ResearchSpecial,
    1,                       !- Temperature Capacity Multiplier
    1,                       !- Humidity Capacity Multiplier
    1,                       !- Carbon Dioxide Capacity Multiplier
    1.0;                     !- Generic Contaminant Capacity Multiplier

!-   ===========  ALL OBJECTS IN CLASS: TIMESTEP ===========

  Timestep,12;

!-   ===========  ALL OBJECTS IN CLASS: SITE:LOCATION ===========

  Site:Location,
    Florianopolis -TRY,      !- Name
    -27.67,                  !- Latitude {deg}
    -48.55,                  !- Longitude {deg}
    -3.0,                    !- Time Zone {hr}
    7;                       !- Elevation {m}

!-   ===========  ALL OBJECTS IN CLASS: SIZINGPERIOD:WEATHERFILEDAYS ===========

  SizingPeriod:WeatherFileDays,
    ano,                     !- Name
    1,                       !- Begin Month
    1,                       !- Begin Day of Month
    12,                      !- End Month
    31,                      !- End Day of Month
    Monday,                  !- Day of Week for Start Day
    No,                      !- Use Weather File Daylight Saving Period
    No;                      !- Use Weather File Rain and Snow Indicators

!-   ===========  ALL OBJECTS IN CLASS: RUNPERIOD ===========

  RunPeriod,
    Ano,                     !- Name
    1,                       !- Begin Month
    1,                       !- Begin Day of Month
    12,                      !- End Month
    31,                      !- End Day of Month
    UseWeatherFile,          !- Day of Week for Start Day
    No,                      !- Use Weather File Holidays and Special Days
    No,                      !- Use Weather File Daylight Saving Period
    No,                      !- Apply Weekend Holiday Rule
    No,                      !- Use Weather File Rain Indicators
    No,                      !- Use Weather File Snow Indicators
    1;                       !- Number of Times Runperiod to be Repeated

!-   ===========  ALL OBJECTS IN CLASS: SITE:GROUNDTEMPERATURE:BUILDINGSURFACE ===========

  Site:GroundTemperature:BuildingSurface,23.83,23.90,23.82,22.49,21.03,19.38,18.13,19.07,20.00,19.99,20.97,22.01;

@@ExpPis3@@

!-   ===========  ALL OBJECTS IN CLASS: SITE:GROUNDREFLECTANCE ===========

  Site:GroundReflectance,0.2,0.2,0.2,0.2,0.2,0.2,0.2,0.2,0.2,0.2,0.2,0.2;

!-   ===========  ALL OBJECTS IN CLASS: SCHEDULETYPELIMITS ===========

  ScheduleTypeLimits,
    fraction,                !- Name
    0,                       !- Lower Limit Value
    1,                       !- Upper Limit Value
    Continuous;              !- Numeric Type

  ScheduleTypeLimits,
    qualquer,                !- Name
    -100,                    !- Lower Limit Value
    1000,                    !- Upper Limit Value
    Continuous;              !- Numeric Type

  ScheduleTypeLimits,
    TEMPERATURE,             !- Name
    0,                       !- Lower Limit Value
    50,                      !- Upper Limit Value
    Continuous,              !- Numeric Type
    Temperature;             !- Unit Type

  ScheduleTypeLimits,
    On_Off,                  !- Name
    0,                       !- Lower Limit Value
    1,                       !- Upper Limit Value
    Discrete,                !- Numeric Type
    Control;                 !- Unit Type

  ScheduleTypeLimits,
    fracao,                  !- Name
    0,                       !- Lower Limit Value
    1,                       !- Upper Limit Value
    Continuous,              !- Numeric Type
    Percent;                 !- Unit Type

  ScheduleTypeLimits,
    atividade,               !- Name
    0,                       !- Lower Limit Value
    1000,                    !- Upper Limit Value
    Continuous,              !- Numeric Type
    ActivityLevel;           !- Unit Type

  ScheduleTypeLimits,
    control,                 !- Name
    0,                       !- Lower Limit Value
    4,                       !- Upper Limit Value
    Discrete;                !- Numeric Type

!-   ===========  ALL OBJECTS IN CLASS: SCHEDULE:COMPACT ===========

  Schedule:Compact,
    OcupSala,                !- Name
    fracao,                  !- Schedule Type Limits Name
    Through: 12/31,          !- Field 1
    For: AllDays,            !- Field 2
    Until: 13:00,0,          !- Field 3
    Until: 18:00,.5,         !- Field 5
    Until: 22:00,1,          !- Field 7
    Until: 24:00,0;          !- Field 9

  Schedule:Compact,
    OcupDorm1,               !- Name
    fracao,                  !- Schedule Type Limits Name
    Through: 12/31,          !- Field 1
    For: AllDays,            !- Field 2
    Until:  8:00,1,          !- Field 3
    Until: 22:00,0,          !- Field 5
    Until: 24:00,1;          !- Field 7

  Schedule:Compact,
    OcupDorm2,               !- Name
    fracao,                  !- Schedule Type Limits Name
    Through: 12/31,          !- Field 1
    For: AllDays,            !- Field 2
    Until:  8:00,1,          !- Field 3
    Until: 22:00,0,          !- Field 5
    Until: 24:00,1;          !- Field 7

  Schedule:Compact,
    IlumSala,                !- Name
    fracao,                  !- Schedule Type Limits Name
    Through: 12/31,          !- Field 1
    For: AllDays,            !- Field 2
    Until: 16:00,0,          !- Field 3
    Until: 22:00,1,          !- Field 5
    Until: 24:00,0;          !- Field 7

  Schedule:Compact,
    IlumDorm1,               !- Name
    fracao,                  !- Schedule Type Limits Name
    Through: 12/31,          !- Field 1
    For: AllDays,            !- Field 2
    Until: 6:00,0,           !- Field 3
    Until: 8:00,1,           !- Field 5
    Until: 22:00,0,          !- Field 7
    Until: 24:00,1;          !- Field 9

  Schedule:Compact,
    IlumDorm2,               !- Name
    fracao,                  !- Schedule Type Limits Name
    Through: 12/31,          !- Field 1
    For: AllDays,            !- Field 2
    Until: 6:00,0,           !- Field 3
    Until: 8:00,1,           !- Field 5
    Until: 22:00,0,          !- Field 7
    Until: 24:00,1;          !- Field 9

  Schedule:Compact,
    AtivSala,                !- Name
    atividade,               !- Schedule Type Limits Name
    Through: 12/31,          !- Field 1
    For:AllDays,             !- Field 2
    Until: 24:00,108;        !- Field 3

  Schedule:Compact,
    AtivDorm,                !- Name
    atividade,               !- Schedule Type Limits Name
    Through: 12/31,          !- Field 1
    For:AllDays,             !- Field 2
    Until: 24:00,81;         !- Field 3

  Schedule:Compact,
    EquipCozi,               !- Name
    fracao,                  !- Schedule Type Limits Name
    Through: 12/31,          !- Field 1
    For:AllDays,             !- Field 2
    Until: 24:00,1;          !- Field 3

  Schedule:Compact,
    EquipSala,               !- Name
    fracao,                  !- Schedule Type Limits Name
    Through: 12/31,          !- Field 1
    For:AllDays,             !- Field 2
    Until: 13:00,0,          !- Field 3
    Until: 22:00,1,          !- Field 5
    Until: 24:00,0;          !- Field 7

  Schedule:Compact,
    VentSetPoint,            !- Name
    TEMPERATURE,             !- Schedule Type Limits Name
    Through: 12/31,          !- Field 1
    For: Alldays,            !- Field 2
    Until: 24:00,20;         !- Field 3

  Schedule:Compact,
    VentIntDorm,             !- Name
    fracao,                  !- Schedule Type Limits Name
    Through: 12/31,          !- Field 1
    For: AllDays,            !- Field 2
    Until: 24:00,1;          !- Field 3

  Schedule:Compact,
    VN_Seletiva,             !- Name
    control,                 !- Schedule Type Limits Name
    Through: 12/31,          !- Field 1
    For: AllDays,            !- Field 2
    Until: 7:00,1,           !- Field 3
    Until: 18:00,1,          !- Field 5
    Until: 24:00,1;          !- Field 7

  Schedule:Compact,
    TempVentilacao,          !- Name
    TEMPERATURE,             !- Schedule Type Limits Name
    Through: 3/21,           !- Field 1
    For: AllDays,            !- Field 2
    Until: 8:00,23.0,        !- Field 3
    Until: 18:00,23.0,       !- Field 5
    Until: 24:00,23.0,       !- Field 7
    Through: 9/21,           !- Field 9
    For: AllDays,            !- Field 10
    Until: 8:00,23.0,        !- Field 11
    Until: 18:00,23.0,       !- Field 13
    Until: 24:00,23.0,       !- Field 15
    Through: 12/31,          !- Field 17
    For: AllDays,            !- Field 18
    Until: 8:00,23.0,        !- Field 19
    Until: 18:00,23.0,       !- Field 21
    Until: 24:00,23.0;       !- Field 23

!-   ===========  ALL OBJECTS IN CLASS: SCHEDULE:CONSTANT ===========

  Schedule:Constant,HVAC_Sala,On_Off,0;

  Schedule:Constant,VN_Sala,On_Off,1;

  Schedule:Constant,Vent_Int_Sala,On_Off,1;

  Schedule:Constant,HVAC_Dorm1,On_Off,0;

  Schedule:Constant,VN_Dorm1,On_Off,1;

  Schedule:Constant,Vent_Int_Dorm1,On_Off,1;

  Schedule:Constant,HVAC_Dorm2,On_Off,0;

  Schedule:Constant,VN_Dorm2,On_Off,1;

  Schedule:Constant,Vent_Int_Dorm2,On_Off,1;

  Schedule:Constant,Vent_Int_Banheiro,On_Off,0;

  Schedule:Constant,VN_Coz,On_Off,0;

  Schedule:Constant,Vent_Int_Coz,On_Off,1;

  Schedule:Constant,Somb_Janelas,control,0;

  Schedule:Constant,HVAC_Dorm3,On_Off,0;

  Schedule:Constant,VN_Dorm3,On_Off,1;

  Schedule:Constant,Vent_Int_Dorm3,On_Off,1;

!-   ===========  ALL OBJECTS IN CLASS: SCHEDULE:FILE ===========

  Schedule:File,
    Limite_Sup,              !- Name
    TEMPERATURE,             !- Schedule Type Limits Name
    Conforto.csv,            !- File Name
    1,                       !- Column Number
    1,                       !- Rows to Skip at Top
    8760,                    !- Number of Hours of Data
    Comma,                   !- Column Separator
    No;                      !- Interpolate to Timestep

  Schedule:File,
    Limite_Inf,              !- Name
    TEMPERATURE,             !- Schedule Type Limits Name
    Conforto.csv,            !- File Name
    2,                       !- Column Number
    1,                       !- Rows to Skip at Top
    8760,                    !- Number of Hours of Data
    Comma,                   !- Column Separator
    No;                      !- Interpolate to Timestep

!-   ===========  ALL OBJECTS IN CLASS: MATERIAL ===========

Material,
    RevestExt,               !- Name
    Rough,                   !- Roughness
    0.025,                   !- Thickness {m}
    1.15,                    !- Conductivity {W/m-K}
    2000,                    !- Density {kg/m3}
    1000,                    !- Specific Heat {J/kg-K}
    0.9,                     !- Thermal Absorptance
    @@AbsPar@@,              !- Solar Absorptance
    @@AbsPar@@;              !- Visible Absorptance

Material,
    RevestInt,               !- Name
    Rough,                   !- Roughness
    0.025,                   !- Thickness {m}
    1.15,                    !- Conductivity {W/m-K}
    2000,                    !- Density {kg/m3}
    1000,                    !- Specific Heat {J/kg-K}
    0.9,                     !- Thermal Absorptance
    0.4,                     !- Solar Absorptance
    0.4;                     !- Visible Absorptance

Material,
    Tij8Furos2.24,           !- Name
    Rough,                   !- Roughness
    0.033,                   !- Thickness {m}
    0.9,                     !- Conductivity {W/m-K}
    1103,                    !- Density {kg/m3}
    920,                     !- Specific Heat {J/kg-K}
    0.9,                     !- Thermal Absorptance
    0.7,                     !- Solar Absorptance
    0.7;                     !- Visible Absorptance

Material,
    EPS1mm,                  !- Name
    MediumRough,             !- Roughness
    0.001,                   !- Thickness {m}
    0.035,                   !- Conductivity {W/m-K}
    30,                      !- Density {kg/m3}
    1400,                    !- Specific Heat {J/kg-K}
    0.9,                     !- Thermal Absorptance
    0.8,                     !- Solar Absorptance
    0.8;                     !- Visible Absorptance

Material,
    EPS3mm,                  !- Name
    MediumRough,             !- Roughness
    0.003,                   !- Thickness {m}
    0.035,                   !- Conductivity {W/m-K}
    30,                      !- Density {kg/m3}
    1400,                    !- Specific Heat {J/kg-K}
    0.9,                     !- Thermal Absorptance
    0.8,                     !- Solar Absorptance
    0.8;                     !- Visible Absorptance

Material,
    EPS1cm,                  !- Name
    MediumRough,             !- Roughness
    0.01,                    !- Thickness {m}
    0.035,                   !- Conductivity {W/m-K}
    30,                      !- Density {kg/m3}
    1400,                    !- Specific Heat {J/kg-K}
    0.9,                     !- Thermal Absorptance
    0.8,                     !- Solar Absorptance
    0.8;                     !- Visible Absorptance

    Material,
    EPS1.5cm,                !- Name
    MediumRough,             !- Roughness
    0.015,                   !- Thickness {m}
    0.035,                   !- Conductivity {W/m-K}
    30,                      !- Density {kg/m3}
    1400,                    !- Specific Heat {J/kg-K}
    0.9,                     !- Thermal Absorptance
    0.8,                     !- Solar Absorptance
    0.8;                     !- Visible Absorptance

    Material,
    EPS2cm,                  !- Name
    MediumRough,             !- Roughness
    0.02,                    !- Thickness {m}
    0.035,                   !- Conductivity {W/m-K}
    30,                      !- Density {kg/m3}
    1400,                    !- Specific Heat {J/kg-K}
    0.9,                     !- Thermal Absorptance
    0.8,                     !- Solar Absorptance
    0.8;                     !- Visible Absorptance

    Material,
    EPS2.5cm,                !- Name
    MediumRough,             !- Roughness
    0.025,                   !- Thickness {m}
    0.035,                   !- Conductivity {W/m-K}
    30,                      !- Density {kg/m3}
    1400,                    !- Specific Heat {J/kg-K}
    0.9,                     !- Thermal Absorptance
    0.8,                     !- Solar Absorptance
    0.8;                     !- Visible Absorptance

Material,
    EPS4cm,                  !- Name
    MediumRough,             !- Roughness
    0.04,                    !- Thickness {m}
    0.035,                   !- Conductivity {W/m-K}
    30,                      !- Density {kg/m3}
    1400,                    !- Specific Heat {J/kg-K}
    0.9,                     !- Thermal Absorptance
    0.8,                     !- Solar Absorptance
    0.8;                     !- Visible Absorptance

Material,
    EPS6cm,                  !- Name
    MediumRough,             !- Roughness
    0.06,                    !- Thickness {m}
    0.035,                   !- Conductivity {W/m-K}
    30,                      !- Density {kg/m3}
    1400,                    !- Specific Heat {J/kg-K}
    0.9,                     !- Thermal Absorptance
    0.8,                     !- Solar Absorptance
    0.8;                     !- Visible Absorptance

Material,
    TijMacicoExt10cm,        !- Name
    MediumSmooth,            !- Roughness
    0.1,                     !- Thickness {m}
    0.9,                     !- Conductivity {W/m-K}
    1600,                    !- Density {kg/m3}
    920,                     !- Specific Heat {J/kg-K}
    0.9,                     !- Thermal Absorptance
    @@AbsPar@@,              !- Solar Absorptance
    @@AbsPar@@;              !- Visible Absorptance

Material,
    TijMacicoInt,            !- Name
    MediumSmooth,            !- Roughness
    0.1,                     !- Thickness {m}
    0.9,                     !- Conductivity {W/m-K}
    1600,                    !- Density {kg/m3}
    920,                     !- Specific Heat {J/kg-K}
    0.9,                     !- Thermal Absorptance
    0.3,                     !- Solar Absorptance
    0.3;                     !- Visible Absorptance

Material,
    ConcParExt10cm,          !- Name
    Rough,                   !- Roughness
    0.1,                     !- Thickness {m}
    1.75,                    !- Conductivity {W/m-K}
    2500,                    !- Density {kg/m3}
    1000,                    !- Specific Heat {J/kg-K}
    0.9,                     !- Thermal Absorptance
    @@AbsPar@@,              !- Solar Absorptance
    @@AbsPar@@;              !- Visible Absorptance

Material,
    ConcParInt10cm,          !- Name
    Rough,                   !- Roughness
    0.1,                     !- Thickness {m}
    1.75,                    !- Conductivity {W/m-K}
    2500,                    !- Density {kg/m3}
    1000,                    !- Specific Heat {J/kg-K}
    0.9,                     !- Thermal Absorptance
    0.3,                     !- Solar Absorptance
    0.3;                     !- Visible Absorptance

Material,
    FibroParExt,             !- Name
    Smooth,                  !- Roughness
    0.012,                   !- Thickness {m}
    0.95,                    !- Conductivity {W/m-K}
    1900,                    !- Density {kg/m3}
    840,                     !- Specific Heat {J/kg-K}
    0.9,                     !- Thermal Absorptance
    @@AbsPar@@,              !- Solar Absorptance
    @@AbsPar@@;              !- Visible Absorptance

Material,
    GessoParInt,             !- Name
    MediumSmooth,            !- Roughness
    0.0125,                  !- Thickness {m}
    0.35,                    !- Conductivity {W/m-K}
    750,                     !- Density {kg/m3}
    840,                     !- Specific Heat {J/kg-K}
    0.9,                     !- Thermal Absorptance
    0.3,                     !- Solar Absorptance
    0.3;                     !- Visible Absorptance

Material,
    LaVidro8cm,              !- Name
    MediumRough,             !- Roughness
    0.08,                    !- Thickness {m}
    0.045,                   !- Conductivity {W/m-K}
    50,                      !- Density {kg/m3}
    700,                     !- Specific Heat {J/kg-K}
    0.9,                     !- Thermal Absorptance
    0.8,                     !- Solar Absorptance
    0.8;                     !- Visible Absorptance

Material,
    LaVidro3.4cm,            !- Name
    MediumRough,             !- Roughness
    0.034,                   !- Thickness {m}
    0.045,                   !- Conductivity {W/m-K}
    50,                      !- Density {kg/m3}
    700,                     !- Specific Heat {J/kg-K}
    0.9,                     !- Thermal Absorptance
    0.8,                     !- Solar Absorptance
    0.8;                     !- Visible Absorptance

Material,
    LaVidro2cm,              !- Name
    MediumRough,             !- Roughness
    0.02,                    !- Thickness {m}
    0.045,                   !- Conductivity {W/m-K}
    50,                      !- Density {kg/m3}
    700,                     !- Specific Heat {J/kg-K}
    0.9,                     !- Thermal Absorptance
    0.8,                     !- Solar Absorptance
    0.8;                     !- Visible Absorptance

Material,
    LaVidro1cm,              !- Name
    MediumRough,             !- Roughness
    0.0102,                  !- Thickness {m}
    0.045,                   !- Conductivity {W/m-K}
    50,                      !- Density {kg/m3}
    700,                     !- Specific Heat {J/kg-K}
    0.9,                     !- Thermal Absorptance
    0.8,                     !- Solar Absorptance
    0.8;                     !- Visible Absorptance

Material,
    LaVidro2.5mm,            !- Name
    MediumRough,             !- Roughness
    0.0025,                  !- Thickness {m}
    0.045,                   !- Conductivity {W/m-K}
    50,                      !- Density {kg/m3}
    700,                     !- Specific Heat {J/kg-K}
    0.9,                     !- Thermal Absorptance
    0.8,                     !- Solar Absorptance
    0.8;                     !- Visible Absorptance
    
Material,
    LaVidro5mm,              !- Name
    MediumRough,             !- Roughness
    0.005,                   !- Thickness {m}
    0.045,                   !- Conductivity {W/m-K}
    50,                      !- Density {kg/m3}
    700,                     !- Specific Heat {J/kg-K}
    0.9,                     !- Thermal Absorptance
    0.8,                     !- Solar Absorptance
    0.8;                     !- Visible Absorptance

Material,
    RevestCob,               !- Name
    Rough,                   !- Roughness
    0.025,                   !- Thickness {m}
    1.15,                    !- Conductivity {W/m-K}
    2000,                    !- Density {kg/m3}
    1000,                    !- Specific Heat {J/kg-K}
    0.9,                     !- Thermal Absorptance
    @@AbsCob@@,              !- Solar Absorptance
    @@AbsCob@@;              !- Visible Absorptance

Material,
    RevestCob1cm,            !- Name
    Rough,                   !- Roughness
    0.01,                    !- Thickness {m}
    1.15,                    !- Conductivity {W/m-K}
    2500,                    !- Density {kg/m3}
    1000,                    !- Specific Heat {J/kg-K}
    0.9,                     !- Thermal Absorptance
    @@AbsCob@@,              !- Solar Absorptance
    @@AbsCob@@;              !- Visible Absorptance

Material,
    RevestCob4cm,            !- Name
    Rough,                   !- Roughness
    0.04,                    !- Thickness {m}
    1.15,                    !- Conductivity {W/m-K}
    2500,                    !- Density {kg/m3}
    1000,                    !- Specific Heat {J/kg-K}
    0.9,                     !- Thermal Absorptance
    @@AbsCob@@,              !- Solar Absorptance
    @@AbsCob@@;              !- Visible Absorptance

Material,
    ConcCob10cm,             !- Name
    Rough,                   !- Roughness
    0.1,                     !- Thickness {m}
    1.75,                    !- Conductivity {W/m-K}
    2500,                    !- Density {kg/m3}
    1000,                    !- Specific Heat {J/kg-K}
    0.9,                     !- Thermal Absorptance
    @@AbsCob@@,              !- Solar Absorptance
    @@AbsCob@@;              !- Visible Absorptance

Material,
    LajeConcCob10cm,          !- Name
    Rough,                   !- Roughness
    0.1,                     !- Thickness {m}
    1.75,                    !- Conductivity {W/m-K}
    2500,                    !- Density {kg/m3}
    1000,                    !- Specific Heat {J/kg-K}
    0.9,                     !- Thermal Absorptance
    0.4,                     !- Solar Absorptance
    0.4;                     !- Visible Absorptance

Material,
    LajeMista12cm,           !- Name
    Rough,                   !- Roughness
    0.095,                   !- Thickness {m}
    1.05,                    !- Conductivity {W/m-K}
    1087,                    !- Density {kg/m3}
    920,                     !- Specific Heat {J/kg-K}
    0.9,                     !- Thermal Absorptance
    0.8,                     !- Solar Absorptance
    0.8;                     !- Visible Absorptance

Material,
    TelhaFC,                 !- Name
    Rough,                   !- Roughness
    0.008,                   !- Thickness {m}
    0.95,                    !- Conductivity {W/m-K}
    1900,                    !- Density {kg/m3}
    840,                     !- Specific Heat {J/kg-K}
    0.9,                     !- Thermal Absorptance
    @@AbsCob@@,              !- Solar Absorptance
    @@AbsCob@@;              !- Visible Absorptance

Material,
    ForMad8mm,               !- Name
    Rough,                   !- Roughness
    0.008,                   !- Thickness {m}
    0.15,                    !- Conductivity {W/m-K}
    650,                     !- Density {kg/m3}
    2300,                    !- Specific Heat {J/kg-K}
    0.9,                     !- Thermal Absorptance
    0.4,                     !- Solar Absorptance
    0.4;                     !- Visible Absorptance

Material,
    ForMadPinus8mm,          !- Name
    Rough,                   !- Roughness
    0.008,                   !- Thickness {m}
    0.23,                    !- Conductivity {W/m-K}
    650,                     !- Density {kg/m3}
    1340,                    !- Specific Heat {J/kg-K}
    0.9,                     !- Thermal Absorptance
    0.4,                     !- Solar Absorptance
    0.4;                     !- Visible Absorptance

Material,
    EPS1.6mm,                !- Name
    MediumRough,             !- Roughness
    0.0016,                  !- Thickness {m}
    0.035,                   !- Conductivity {W/m-K}
    30,                      !- Density {kg/m3}
    1400,                    !- Specific Heat {J/kg-K}
    0.9,                     !- Thermal Absorptance
    0.8,                     !- Solar Absorptance
    0.8;                     !- Visible Absorptance

Material,
    EPS2.3mm,                !- Name
    MediumRough,             !- Roughness
    0.0023,                  !- Thickness {m}
    0.035,                   !- Conductivity {W/m-K}
    30,                      !- Density {kg/m3}
    1400,                    !- Specific Heat {J/kg-K}
    0.9,                     !- Thermal Absorptance
    0.8,                     !- Solar Absorptance
    0.8;                     !- Visible Absorptance

Material,
    EPS4mm,                  !- Name
    MediumRough,             !- Roughness
    0.004,                   !- Thickness {m}
    0.035,                   !- Conductivity {W/m-K}
    30,                      !- Density {kg/m3}
    1400,                    !- Specific Heat {J/kg-K}
    0.9,                     !- Thermal Absorptance
    0.8,                     !- Solar Absorptance
    0.8;                     !- Visible Absorptance

Material,
    EPS5mm,                  !- Name
    MediumRough,             !- Roughness
    0.005,                   !- Thickness {m}
    0.035,                   !- Conductivity {W/m-K}
    30,                      !- Density {kg/m3}
    1400,                    !- Specific Heat {J/kg-K}
    0.9,                     !- Thermal Absorptance
    0.8,                     !- Solar Absorptance
    0.8;                     !- Visible Absorptance
    
Material,
    EPS7mm,                  !- Name
    MediumRough,             !- Roughness
    0.007,                   !- Thickness {m}
    0.035,                   !- Conductivity {W/m-K}
    30,                      !- Density {kg/m3}
    1400,                    !- Specific Heat {J/kg-K}
    0.9,                     !- Thermal Absorptance
    0.8,                     !- Solar Absorptance
    0.8;                     !- Visible Absorptance

Material,
    EPS13mm,                 !- Name
    MediumRough,             !- Roughness
    0.013,                   !- Thickness {m}
    0.035,                   !- Conductivity {W/m-K}
    30,                      !- Density {kg/m3}
    1400,                    !- Specific Heat {J/kg-K}
    0.9,                     !- Thermal Absorptance
    0.8,                     !- Solar Absorptance
    0.8;                     !- Visible Absorptance

Material,
    EPS17mm,                 !- Name
    MediumRough,             !- Roughness
    0.017,                   !- Thickness {m}